tests/fuzzer/corpus_json/24_columnar_21_random_014.json
{
  "version": "1.0",
  "type": "input",
  "is_batch": false,
  "attributes": {
    "node": [
      "id",
      "u_rated"
    ],
    "source": [
      "id",
      "node",
      "status",
      "u_ref",
      "u_ref_angle",
      "sk",
      "rx_ratio",
      "z01_ratio"
    ],
    "line": [
      "id",
      "from_node",
      "to_node",
      "from_status",
      "to_status",
      "r1",
      "x1",
      "c1",
      "tan1",
      "r0",
      "x0",
      "c0",
      "tan0",
      "i_n"
    ],
    "sym_load": [
      "id",
      "node",
      "status",
      "type",
      "p_specified",
      "q_specified"
    ]
  },
  "data": {
    "node": [
      [
        0,
        380000.0
      ],
      [
        1,
        380000.0
      ],
      [
        2,
        380000.0
      ]
    ],
    "source": [
      [
        3,
        0,
        1,
        1.0304084040628552,
        0.0,
        702615265.4344568,
        0.47017619478305894,
        1.0
      ],
      [
        4,
        2,
        1,
        1.0,
        0.0,
        255849935.88169587,
        0.1,
        1.0
      ]
    ],
    "line": [
      [
        5,
        0,
        1,
        1,
        1,
        3.670296820723484,
        3.292250091200379,
        3.0298797388835507e-07,
        0.0,
        0.3,
        0.3,
        1e-09,
        0.0,
        687.3907967961859
      ],
      [
        6,
        1,
        2,
        1,
        1,
        1.9833682251650697,
        3.887582939450562,
        1.1839956986543854e-07,
        0.0,
        0.3,
        0.3,
        1e-09,
        0.0,
        231.03345514912706
      ]
    ],
    "sym_load": [
      [
        7,
        2,
        1,
        1,
        -27865.977876959325,
        2654.5683490729207
      ]
    ]
  }
}
